*Heading
** Job name: Job-2 Model name: Model-1
** Generated by: Abaqus/CAE 6.13-1
*Preprint, echo=NO, model=NO, history=NO, contact=NO
**
** PARTS
**
*Part, name=Part-1
*Node
      1,  -24.7542782,  -3.49653101
      2,  -24.1556225,  -6.44250393
      3,  -23.2076931,  -9.29532242
      4,  -21.9241905,  -12.0137358
      5,   -20.323679,  -14.5584364
      6,  -18.4292984,  -16.8926315
      7,  -16.2684383,  -18.9825687
      8,  -13.8723488,   -20.798027
      9,   -11.275671,  -22.3127594
     10,  -8.51595402,  -23.5048618
     11,  -5.63310146,  -24.3570976
     12,  -2.66879749,  -24.8571415
     13, -0.668480456,  -24.9910603
     14,   2.33602548,  -24.8906212
     15,   5.30675411,   -24.430275
     16,    8.2007494,  -23.6166821
     17,   10.9761677,   -22.461607
     18,   13.5928755,  -20.9817467
     19,   16.0130386,  -19.1985054
     20,   18.2016621,  -17.1376629
** ... 2700 like lines cut
*Element, type=CPE4R
   1,  753,  494,  495,  733
   2,  665,   72,  611,  698
   3,  666,   73,  612,  699
   4,  667,   74,  613,  700
   5,  668,   75,  614,  701
   6,  669,   76,  615,  702
   7,  704,  617,  616,  703
   8,  618,  705,  671,   78
   9,  619,  706,  672,   79
  10,  620,  707,  673,   80
  11,  674,   81,  621,  708
  12,  664,  628,   70,  622
  13,  635,  626,  628,  979
  14,  623,   67,  626,  630
  15,   68,   67,  623,  629
  16,  105,  673,  707,  811
  17, 1092, 1933, 1039,  126
  18,  149, 1517, 1549, 1978
  19,  172, 1523, 1984, 2514
  20, 1728, 2695, 1737, 1937
** ... 2594 like lines cut
*Nset, nset=Set-1, generate
    1,  2720,     1
*Elset, elset=Set-1, generate
    1,  2614,     1
** Section: Section-1
*Solid Section, elset=Set-1, material="Mild Steel"
,
*End Part
**  
**
** ASSEMBLY
**
*Assembly, name=Assembly
**  
*Instance, name=Part-1-1, part=Part-1
*End Instance
**  
*Nset, nset=OuterBoundary, instance=Part-1-1
   1,   2,   3,   4,   5,   6,   7,   8,   9,  10,  11,  12,  13,  14,  15,  16
  17,  18,  19,  20,  21,  22,  23,  24,  25,  26,  27,  28,  29,  30,  31,  32
  33,  34,  35,  36,  37,  38,  39,  40,  41,  42,  43,  44,  45,  46,  47,  48
  49,  50,  51,  52,  53,  54, 494, 495, 496, 497, 498, 499, 500, 501, 502, 503
 504, 505, 506, 507, 508, 509, 510, 511, 512, 513, 514, 515, 516, 517, 518, 519
 520, 521, 522, 523, 524, 525, 526, 527, 528, 529, 530, 531, 532, 533, 534, 535
 536, 537, 538, 539, 540, 541, 542, 543, 544, 545, 546, 547, 548, 549, 550, 551
 552, 553, 554, 555, 556, 557, 558, 559, 560, 561, 562, 563, 564, 565, 566, 567
 568, 569, 570, 571, 572, 573, 574, 575, 576, 577, 578, 579, 580, 581, 582, 583
 584, 585, 586, 587, 588, 589, 590, 591, 592, 593, 594, 595, 596
*End Assembly
** 
** MATERIALS
** 
*Material, name="Mild Steel"
*Elastic
210000., 0.3
** ----------------------------------------------------------------
** 
** STEP: Step-1
** 
*Step, name=Step-1, nlgeom=NO
*Static
1., 1., 1e-05, 1.
*Include, Input=node_sets.inp
*Include, Input=node_bc.inp
** 
** OUTPUT REQUESTS
** 
*Restart, write, frequency=0
** 
** FIELD OUTPUT: F-Output-1
** 
*Output, field, variable=PRESELECT
** 
** HISTORY OUTPUT: H-Output-1
** 
*Output, history, variable=PRESELECT
*End Step
